$ NASTRAN SOL145 FLUTTER ANALYSIS - CORRECTED PISTON THEORY
$ Generated: 2025-11-11 11:24:05.426541
$ Panel: 500.0mm x 400.0mm
$ Mach number: 0.8
$
SOL 145
CEND
TITLE = Panel Flutter Analysis - Piston Theory
ECHO = NONE
SPC = 1
METHOD = 1
FMETHOD = 1
BEGIN BULK
$
PARAM   COUPMASS1
PARAM   GRDPNT  0
PARAM   VREF    1.0
PARAM   W3      0.03
$ W3=0.03: Uniform 3% critical damping on all modes (aerospace standard)
PARAM   KDAMP   1
$ KDAMP=1: Use TABDMP1 with ID=1 (backup for NASTRAN versions that support it)
$
$ Material Properties (NASTRAN mm-kg-s-N system)
MAT1    1       71700.0 26954.9 .33     2.81E-06 2.1E-05
$
$ Shell Property
PSHELL  1       1       3.0000  1       
$
$ Grid Points
GRID    1               0.0     0.0     0.0     
GRID    2               50.0    0.0     0.0     
GRID    3               100.0   0.0     0.0     
GRID    4               150.0   0.0     0.0     
GRID    5               200.0   0.0     0.0     
GRID    6               250.0   0.0     0.0     
GRID    7               300.0   0.0     0.0     
GRID    8               350.0   0.0     0.0     
GRID    9               400.0   0.0     0.0     
GRID    10              450.0   0.0     0.0     
GRID    11              500.0   0.0     0.0     
GRID    12              0.0     40.0    0.0     
GRID    13              50.0    40.0    0.0     
GRID    14              100.0   40.0    0.0     
GRID    15              150.0   40.0    0.0     
GRID    16              200.0   40.0    0.0     
GRID    17              250.0   40.0    0.0     
GRID    18              300.0   40.0    0.0     
GRID    19              350.0   40.0    0.0     
GRID    20              400.0   40.0    0.0     
$ ... 101 like lines cut
$
$ Elements
CQUAD4  1       1       1       2       13      12      
CQUAD4  2       1       2       3       14      13      
CQUAD4  3       1       3       4       15      14      
CQUAD4  4       1       4       5       16      15      
CQUAD4  5       1       5       6       17      16      
CQUAD4  6       1       6       7       18      17      
CQUAD4  7       1       7       8       19      18      
CQUAD4  8       1       8       9       20      19      
CQUAD4  9       1       9       10      21      20      
CQUAD4  10      1       10      11      22      21      
CQUAD4  11      1       12      13      24      23      
CQUAD4  12      1       13      14      25      24      
CQUAD4  13      1       14      15      26      25      
CQUAD4  14      1       15      16      27      26      
CQUAD4  15      1       16      17      28      27      
CQUAD4  16      1       17      18      29      28      
CQUAD4  17      1       18      19      30      29      
CQUAD4  18      1       19      20      31      30      
CQUAD4  19      1       20      21      32      31      
CQUAD4  20      1       21      22      33      32      
$ ... 80 like lines cut
$
$ Boundary Conditions
$ SSSS: Simply Supported on all four edges
SPC1    1       3       1       2       3       4       5       6       
+       7       8       9       10      11      12      
+       22      23      33      34      44      45      
+       55      56      66      67      77      78      
+       88      89      99      100     110     111     
+       112     113     114     115     116     117     
+       118     119     120     121     
SPC1    1       1       1
SPC1    1       2       1       121
SPC1    1       6       1       THRU    121
$
$ Eigenvalue Extraction
EIGRL          1                      20       0
$
$ Aerodynamic Reference
$ AERO: ACSID VELOCITY REFC RHOREF
$   ACSID=0: Basic coordinate system
$   VELOCITY=1.0: Reference velocity (actual velocities in FLFACT)
$   REFC=500.0: Reference chord length (mm)
$   RHOREF: Reference density (kg/mm³ = kg/m³ × 1e-9)
$ Reference density: 1.2250 kg/m³ (altitude: 10000m)
AERO    0       1.      500.0   1.225-9 
$
$ Doublet Lattice Method (CAERO1) - Subsonic/Transonic
$
$ Doublet Lattice Method Property
PAERO1  1
$
$ Doublet Lattice Method Panel
CAERO1  1       1               8       8                       1       +CA1
+CA1    0.0     0.0     0.0     500.0   0.0     400.0   0.0     500.0   
$
$ Spline - Surface Interpolation
SPLINE1 1       1       1       64      1       
SET1    1       1       THRU    121     
$
$ Flutter Analysis
$ Structural Damping Table (frequency-dependent)
TABDMP1 1       CRIT
+       0.0     0.03    1000.0  0.03    ENDT
$
FLUTTER 1       PK      1       2       3       L
FLFACT  1       0.5
FLFACT  2       0.8     0.8
FLFACT  3       100000. 135000. 170000. 205000. 240000. 275000. 310000. +FL3    
+FL3    345000. 380000. 415000. 450000. 485000. 520000. 555000. 590000. +FL3    
+FL3    625000. 660000. 695000. 730000. 765000. 800000. 
$
$ Aerodynamic Matrices - Doublet Lattice (MKAERO1)
MKAERO1 0.8                                                             +MK1     
+MK1    0.001   0.1     0.2     0.4
$
ENDDATA