$ NASTRAN SOL145 FLUTTER ANALYSIS - CORRECTED PISTON THEORY
$ Generated: 2025-11-11 05:59:06.519800
$ Panel: 300.0mm x 300.0mm
$ Mach number: 2.0
$
SOL 145
CEND
TITLE = Panel Flutter Analysis - Piston Theory
ECHO = NONE
SPC = 1
METHOD = 1
FMETHOD = 1
BEGIN BULK
$
PARAM   COUPMASS1
PARAM   GRDPNT  0
PARAM   VREF    1.0
PARAM   OPPHIPA 1
$ OPPHIPA=1: Use higher-order piston theory for better accuracy at M<3
$
$ Material Properties (NASTRAN mm-kg-s-N system)
MAT1    1       71700.0 26954.9 .33     2.81E-06 2.1E-05
$
$ Shell Property
PSHELL  1       1       1.5000
$
$ Grid Points
GRID    1               0.0     0.0     0.0     
GRID    2               30.0    0.0     0.0     
GRID    3               60.0    0.0     0.0     
GRID    4               90.0    0.0     0.0     
GRID    5               120.0   0.0     0.0     
GRID    6               150.0   0.0     0.0     
GRID    7               180.0   0.0     0.0     
GRID    8               210.0   0.0     0.0     
GRID    9               240.0   0.0     0.0     
GRID    10              270.0   0.0     0.0     
GRID    11              300.0   0.0     0.0     
GRID    12              0.0     30.0    0.0     
GRID    13              30.0    30.0    0.0     
GRID    14              60.0    30.0    0.0     
GRID    15              90.0    30.0    0.0     
GRID    16              120.0   30.0    0.0     
GRID    17              150.0   30.0    0.0     
GRID    18              180.0   30.0    0.0     
GRID    19              210.0   30.0    0.0     
GRID    20              240.0   30.0    0.0     
$ ... 101 like lines cut
$
$ Elements
CQUAD4  1       1       1       2       13      12      
CQUAD4  2       1       2       3       14      13      
CQUAD4  3       1       3       4       15      14      
CQUAD4  4       1       4       5       16      15      
CQUAD4  5       1       5       6       17      16      
CQUAD4  6       1       6       7       18      17      
CQUAD4  7       1       7       8       19      18      
CQUAD4  8       1       8       9       20      19      
CQUAD4  9       1       9       10      21      20      
CQUAD4  10      1       10      11      22      21      
CQUAD4  11      1       12      13      24      23      
CQUAD4  12      1       13      14      25      24      
CQUAD4  13      1       14      15      26      25      
CQUAD4  14      1       15      16      27      26      
CQUAD4  15      1       16      17      28      27      
CQUAD4  16      1       17      18      29      28      
CQUAD4  17      1       18      19      30      29      
CQUAD4  18      1       19      20      31      30      
CQUAD4  19      1       20      21      32      31      
CQUAD4  20      1       21      22      33      32      
$ ... 80 like lines cut
$
$ Boundary Conditions
$ SSSS: Simply Supported on all four edges
SPC1    1       3       1       2       3       4       5       6       
+       7       8       9       10      11      12      
+       22      23      33      34      44      45      
+       55      56      66      67      77      78      
+       88      89      99      100     110     111     
+       112     113     114     115     116     117     
+       118     119     120     121     
SPC1    1       1       1
SPC1    1       2       1       121
SPC1    1       6       1       THRU    121
$
$ Eigenvalue Extraction
EIGRL          1                      10       0
$
$ Aerodynamic Reference
$ AERO: ACSID VELOCITY REFC RHOREF
$   ACSID=0: Basic coordinate system
$   VELOCITY=1.0: Reference velocity (actual velocities in FLFACT)
$   REFC=300.0: Reference chord length (mm)
$   RHOREF: Reference density (kg/mm³ = kg/m³ × 1e-9)
$ Reference density: 0.4127 kg/m³ (altitude: 10000m)
AERO    0       1.      300.0   4.127-10
$
$ Piston Theory (CAERO5) - Supersonic Aerodynamics
$ Reference: MSC Nastran Aeroelastic Analysis User's Guide, Example HA145HA
$
$ Thickness Integrals (I1-I6) - flat panel
AEFACT  10      0.0     0.0     0.0     0.0     0.0     0.0     
$
$ Mach and Alpha Combinations
AEFACT  20      2.0     0.0     3.0     0.0     
$
$ Piston Theory Property
PAERO5  1001    1       20                                              +PA5
+PA5    0.0     0.0     0.0     0.0     0.0     0.0     0.0     0.0     +PA51
+PA51   0.0     0.0     
$
$ PISTON THEORY PANEL (CAERO5)
$
CAERO5  1001    1001            10                      10              +CA00
+CA00   0.0     0.0     0.0     300.0   0.0     30.0    0.0     300.0   
CAERO5  2001    1001            10                      10              +CA01
+CA01   0.0     30.0    0.0     300.0   0.0     60.0    0.0     300.0   
CAERO5  3001    1001            10                      10              +CA02
+CA02   0.0     60.0    0.0     300.0   0.0     90.0    0.0     300.0   
CAERO5  4001    1001            10                      10              +CA03
+CA03   0.0     90.0    0.0     300.0   0.0     120.0   0.0     300.0   
CAERO5  5001    1001            10                      10              +CA04
+CA04   0.0     120.0   0.0     300.0   0.0     150.0   0.0     300.0   
CAERO5  6001    1001            10                      10              +CA05
+CA05   0.0     150.0   0.0     300.0   0.0     180.0   0.0     300.0   
CAERO5  7001    1001            10                      10              +CA06
+CA06   0.0     180.0   0.0     300.0   0.0     210.0   0.0     300.0   
CAERO5  8001    1001            10                      10              +CA07
+CA07   0.0     210.0   0.0     300.0   0.0     240.0   0.0     300.0   
CAERO5  9001    1001            10                      10              +CA08
+CA08   0.0     240.0   0.0     300.0   0.0     270.0   0.0     300.0   
CAERO5  10001   1001            10                      10              +CA09
+CA09   0.0     270.0   0.0     300.0   0.0     300.0   0.0     300.0   
$
$ SPLINE - SURFACE INTERPOLATION
SPLINE1 1       1001    1001    1010    1       
SPLINE1 2       2001    2001    2010    1       
SPLINE1 3       3001    3001    3010    1       
SPLINE1 4       4001    4001    4010    1       
SPLINE1 5       5001    5001    5010    1       
SPLINE1 6       6001    6001    6010    1       
SPLINE1 7       7001    7001    7010    1       
SPLINE1 8       8001    8001    8010    1       
SPLINE1 9       9001    9001    9010    1       
SPLINE1 10      10001   10001   10010   1       
SET1    1       1       THRU    121
$
$ Flutter Analysis
FLUTTER 1       PK      1       2       3       L
FLFACT  1       0.5
FLFACT  2       2.0     3.0
FLFACT  3       500000. 600000. 700000. 800000. 900000. 1.00+6  1.10+6  +FL3    
+FL3    1.20+6  1.30+6  1.40+6  1.50+6  1.60+6  1.70+6  1.80+6  1.90+6  +FL3    
+FL3    2.00+6  
$
$ Aerodynamic Matrices - Piston Theory (MKAERO1)
MKAERO1 2.0     3.0                                                     +MK1     
+MK1    0.001   0.1     0.2     0.4
$
ENDDATA